DATABASE C:\Program Files (x86)\USGS\Phreeqc Interactive 3.7.3-15968\database\llnl.dat
TITLE 01_SIMPLE_SOLUTION

SOLUTION_MASTER_SPECIES
As(+5)	H2AsO4-		0.0	As	74.92
END

SOLUTION_SPECIES
AsO4-3 + H+ = HAsO4-2
log_k		11.60
AsO4-3 + 2H+ = H2AsO4-
log_k		18.35
AsO4-3 + 3H+ = H3AsO4
log_k		20.60
END

SOLUTION 1
pH		1.0
Cl		0.9		mol/kgw
Na		0.9		mol/kgw
As(+5)	100		ug/kgw
END